elements !faf
H O n
END

SPECIES !fad 
H2 O2 H2O H O !fefef
OH HO2 H2O2 !N2 
END

REACTIONS
H+O2=OH+O 	5.13E16        -0.816 	16507. !JAM,JCP 1981
O+H2=OH+H 	1.8E10 		1.0 	8826.
O+H2O=OH+OH 	1.17E9 		1.3 	3626. !D-L$W
H2+M=H+H+M 	2.23E12 	0.5 	92600.
O+O+M=O2+M 	2.23E12 	0.5 	92600.
H+O+M=OH+M 	2.23E12 	0.5 	92600.
H+OH+M=H2O+M 	7.5E23 		-2.6 	0.
H+O2+M=HO2+M 	2.1E18 	       -1.0 	0. !SLACK
H2+O2=H+HO2 	1.7E13 		0.0 	47780.
HO2+H=OH+OH 	1.7E13 		0.0 	47780.
HO2+O=OH+O2 	1.7E13 		0.0 	47780.
HO2+OH=H2O+O2 	1.7E13 		0.0 	47780.
HO2+H=OH+OH 	1.7E13 		0.0 	47780.
HO2+HO2=H2O2+O2 	1.7E13 		0.0 	47780.
HO2+HO2=H2O2+O2 	1.7E13 		0.0 	47780.
H2O2+M=OH+OH+M 	1.7E13 		0.0 	47780.
H2O2+H2O=OH+OH+H2O 	1.7E13 		0.0 	47780.
H2O2+H=H2+HO2 	1.7E13 		0.0 	47780.
H2O2+H=H2O+OH 	1.7E13 		0.0 	47780.
H2O2+O=OH+HO2 	1.7E13 		0.0 	47780.
H2O2+OH=H2O+HO2 	1.7E13 		0.0 	47780.
H2O2+OH=H2O+HO2 	1.7E13 		0.0 	47780.
END
